@<TRIPOS>MOLECULE
MGO
   21    21     1     0     1 
SMALL
USER_CHARGES
@<TRIPOS>ATOM
 1 C1          1.136334   -0.817888   -0.568646 CG        1 MGO        0.0427 ----
 2 H1          1.629646   -1.347578   -1.380785 H2        1 MGO        0.1610 ----
 3 O1          1.693018   -1.178781    0.641556 OS        1 MGO       -0.3229 ----
 4 C2          1.286276    0.692637   -0.753039 CG        1 MGO        0.1376 ----
 5 H2          0.893319    0.924482   -1.744331 H1        1 MGO        0.0650 ----
 6 O2          2.610511    1.107081   -0.635813 OH        1 MGO       -0.6346 ----
 7 HO2         3.115634    0.802626   -1.371102 HO        1 MGO        0.4366 ----
 8 C3          0.447227    1.434454    0.283048 CG        1 MGO        0.1224 ----
 9 H3          0.879881    1.235601    1.257571 H1        1 MGO        0.1779 ----
10 O3          0.506247    2.818784    0.120021 OH        1 MGO       -0.6200 ----
11 HO3        -0.010885    3.082337   -0.624008 HO        1 MGO        0.4220 ----
12 C4         -0.994062    0.923606    0.244390 CG        1 MGO        0.0401 ----
13 H4         -1.459363    1.220070   -0.688545 H1        1 MGO        0.1595 ----
14 C5         -1.054269   -0.606260    0.305489 CG        1 MGO        0.0193 ----
15 H5         -0.746412   -0.930062    1.299455 H1        1 MGO        0.1156 ----
16 O5         -0.202827   -1.180127   -0.659419 OS        1 MGO       -0.3668 ----
17 C6         -2.449769   -1.145415    0.061046 CG        1 MGO        0.1918 ----
18 H61        -3.093619   -0.804000    0.866610 H1        1 MGO        0.0254 ----
19 H62        -2.404699   -2.232005    0.089442 H1        1 MGO        0.0254 ----
20 O6         -2.912805   -0.695834   -1.180804 OH        1 MGO       -0.6077 ----
21 HO6        -3.815009   -0.942299   -1.293514 HO        1 MGO        0.4097 ----

@<TRIPOS>BOND
    1     1     2 1
    2     1     3 1
    3     1     4 1
    4     1    16 1
    5     4     5 1
    6     4     6 1
    7     4     8 1
    8     6     7 1
    9     8     9 1
   10     8    10 1
   11     8    12 1
   12    10    11 1
   13    12    13 1
   14    12    14 1
   15    14    15 1
   16    14    16 1
   17    14    17 1
   18    17    18 1
   19    17    19 1
   20    17    20 1
   21    20    21 1
@<TRIPOS>SUBSTRUCTURE
      1  MGO              1 ****               0 ****  **** 
